  
       XFOIL         Version 6.99
  
 Calculated polar for: NACA 4408                                       
  
 1 1 Reynolds number fixed          Mach number fixed         
  
 xtrf =   1.000 (top)        1.000 (bottom)  
 Mach =   0.000     Re =     0.100 e 6     Ncrit =   9.000
  
   alpha    CL        CD       CDp       CM     Top_Xtr  Bot_Xtr
  ------ -------- --------- --------- -------- -------- --------
 -10.000  -0.2751   0.11088   0.10604  -0.0330   1.0000   0.0713
  -9.900  -0.2743   0.10971   0.10489  -0.0331   1.0000   0.0722
  -9.800  -0.2738   0.10857   0.10376  -0.0333   1.0000   0.0731
  -9.700  -0.2737   0.10745   0.10266  -0.0334   1.0000   0.0740
  -9.600  -0.2741   0.10638   0.10160  -0.0336   1.0000   0.0750
  -9.500  -0.2752   0.10541   0.10065  -0.0340   1.0000   0.0759
  -9.400  -0.2776   0.10461   0.09987  -0.0344   1.0000   0.0767
  -9.300  -0.2812   0.10398   0.09927  -0.0350   1.0000   0.0773
  -9.200  -0.2858   0.10347   0.09879  -0.0356   1.0000   0.0777
  -9.100  -0.2908   0.10299   0.09835  -0.0362   1.0000   0.0779
  -9.000  -0.2956   0.10246   0.09786  -0.0367   1.0000   0.0781
  -8.900  -0.3006   0.10193   0.09736  -0.0371   1.0000   0.0782
  -8.800  -0.3055   0.10136   0.09683  -0.0374   1.0000   0.0784
  -8.700  -0.3108   0.10081   0.09632  -0.0376   1.0000   0.0784
  -8.600  -0.3159   0.10022   0.09577  -0.0376   1.0000   0.0785
  -8.500  -0.3217   0.09967   0.09527  -0.0375   1.0000   0.0786
  -8.400  -0.3673   0.10432   0.09941  -0.0334   1.0000   0.0777
  -8.300  -0.3729   0.10407   0.09923  -0.0341   1.0000   0.0779
  -8.200  -0.3792   0.10384   0.09905  -0.0343   1.0000   0.0781
  -8.100  -0.3852   0.10353   0.09880  -0.0346   1.0000   0.0782
  -8.000  -0.3892   0.10300   0.09832  -0.0360   1.0000   0.0783
  -7.900  -0.3925   0.10237   0.09773  -0.0376   1.0000   0.0785
  -7.800  -0.3951   0.10163   0.09702  -0.0393   1.0000   0.0785
  -7.700  -0.3801   0.09666   0.09202  -0.0326   1.0000   0.0798
  -7.600  -0.3686   0.09439   0.08971  -0.0309   1.0000   0.0811
  -7.500  -0.3663   0.09321   0.08854  -0.0302   1.0000   0.0820
  -7.400  -0.3663   0.09225   0.08761  -0.0294   1.0000   0.0829
  -7.300  -0.3676   0.09140   0.08679  -0.0288   1.0000   0.0837
  -7.200  -0.3691   0.09055   0.08597  -0.0283   1.0000   0.0845
  -7.100  -0.3705   0.08967   0.08512  -0.0280   1.0000   0.0855
  -7.000  -0.3722   0.08880   0.08428  -0.0278   1.0000   0.0864
  -6.900  -0.3742   0.08795   0.08346  -0.0277   1.0000   0.0874
  -6.800  -0.3765   0.08711   0.08266  -0.0279   1.0000   0.0884
  -6.700  -0.3792   0.08631   0.08189  -0.0285   1.0000   0.0896
  -6.600  -0.3824   0.08563   0.08124  -0.0303   1.0000   0.0908
  -6.500  -0.3854   0.08510   0.08072  -0.0348   1.0000   0.0918
  -6.400  -0.3854   0.08439   0.07996  -0.0404   1.0000   0.0923
  -6.300  -0.3849   0.08269   0.07827  -0.0415   1.0000   0.0927
  -6.200  -0.3851   0.08069   0.07634  -0.0381   1.0000   0.0932
  -6.100  -0.3846   0.07928   0.07497  -0.0352   1.0000   0.0938
  -6.000  -0.3838   0.07813   0.07385  -0.0331   1.0000   0.0945
  -5.900  -0.3827   0.07711   0.07284  -0.0315   1.0000   0.0953
  -5.800  -0.3815   0.07612   0.07187  -0.0306   1.0000   0.0963
  -5.700  -0.3800   0.07512   0.07088  -0.0301   1.0000   0.0976
  -5.600  -0.3783   0.07408   0.06985  -0.0301   1.0000   0.0990
  -5.500  -0.3760   0.07296   0.06874  -0.0306   1.0000   0.1008
  -5.400  -0.3717   0.07169   0.06743  -0.0330   1.0000   0.1037
  -5.300  -0.3594   0.06929   0.06486  -0.0424   1.0000   0.1072
  -5.200  -0.3598   0.06796   0.06360  -0.0399   1.0000   0.1079
  -5.100  -0.3597   0.06701   0.06270  -0.0374   1.0000   0.1090
  -5.000  -0.3585   0.06620   0.06191  -0.0357   1.0000   0.1105
  -4.900  -0.3557   0.06535   0.06107  -0.0349   1.0000   0.1128
  -4.800  -0.3497   0.06421   0.05990  -0.0361   1.0000   0.1168
  -4.700  -0.3351   0.06177   0.05728  -0.0428   1.0000   0.1222
  -4.600  -0.3341   0.06073   0.05631  -0.0409   1.0000   0.1233
  -4.500  -0.3317   0.05982   0.05542  -0.0397   1.0000   0.1248
  -4.400  -0.3273   0.05886   0.05447  -0.0393   1.0000   0.1269
  -4.300  -0.3195   0.05773   0.05329  -0.0405   1.0000   0.1311
  -4.200  -0.3053   0.05560   0.05100  -0.0449   1.0000   0.1372
  -4.100  -0.3018   0.05456   0.04999  -0.0440   1.0000   0.1385
  -4.000  -0.2970   0.05361   0.04906  -0.0434   1.0000   0.1405
  -3.900  -0.2896   0.05262   0.04804  -0.0439   1.0000   0.1443
  -3.800  -0.2752   0.05083   0.04608  -0.0474   1.0000   0.1521
  -3.700  -0.2704   0.04984   0.04512  -0.0467   1.0000   0.1538
  -3.600  -0.2637   0.04894   0.04422  -0.0466   1.0000   0.1569
  -3.500  -0.2494   0.04750   0.04260  -0.0495   1.0000   0.1667
  -3.400  -0.2373   0.04627   0.04141  -0.0501   0.9984   0.1699
  -3.300  -0.1752   0.03613   0.02951  -0.0621   1.0000   0.0925
  -3.200  -0.1605   0.03413   0.02754  -0.0635   0.9991   0.0911
  -3.100  -0.1421   0.03226   0.02557  -0.0655   0.9977   0.0884
  -3.000  -0.1208   0.03002   0.02294  -0.0677   0.9967   0.0845
  -2.900  -0.0988   0.02799   0.02041  -0.0697   0.9958   0.0822
  -2.800  -0.0790   0.02700   0.01922  -0.0715   0.9944   0.0836
  -2.700  -0.0608   0.02636   0.01841  -0.0730   0.9918   0.0873
  -2.600  -0.0414   0.02553   0.01727  -0.0745   0.9896   0.0901
  -2.500  -0.0216   0.02473   0.01614  -0.0760   0.9877   0.0917
  -2.400  -0.0025   0.02376   0.01503  -0.0776   0.9861   0.0942
  -2.300   0.0165   0.02336   0.01466  -0.0793   0.9842   0.0999
  -2.200   0.0342   0.02303   0.01411  -0.0805   0.9814   0.1059
  -2.100   0.0509   0.02237   0.01345  -0.0817   0.9787   0.1106
  -2.000   0.0688   0.02197   0.01299  -0.0831   0.9760   0.1169
  -1.900   0.0875   0.02159   0.01261  -0.0846   0.9736   0.1262
  -1.800   0.1072   0.02124   0.01220  -0.0863   0.9717   0.1371
  -1.700   0.1247   0.02092   0.01189  -0.0876   0.9690   0.1482
  -1.600   0.1394   0.02064   0.01168  -0.0884   0.9649   0.1619
  -1.500   0.1569   0.02034   0.01141  -0.0898   0.9619   0.1798
  -1.400   0.1756   0.01997   0.01120  -0.0913   0.9595   0.2013
  -1.300   0.1949   0.01966   0.01100  -0.0930   0.9574   0.2321
  -1.200   0.2093   0.01938   0.01085  -0.0938   0.9534   0.2642
  -1.100   0.2245   0.01903   0.01071  -0.0947   0.9495   0.3077
  -1.000   0.2424   0.01850   0.01053  -0.0962   0.9470   0.3811
  -0.900   0.2543   0.01711   0.01052  -0.0959   0.9463   0.7181
  -0.800   0.2717   0.01672   0.01026  -0.0964   0.9430   1.0000
  -0.700   0.2828   0.01680   0.01020  -0.0965   0.9367   1.0000
  -0.600   0.3000   0.01683   0.01010  -0.0977   0.9328   1.0000
  -0.500   0.3197   0.01684   0.00997  -0.0993   0.9300   1.0000
  -0.400   0.3346   0.01688   0.00992  -0.1001   0.9255   1.0000
  -0.300   0.3485   0.01692   0.00988  -0.1006   0.9202   1.0000
  -0.200   0.3671   0.01690   0.00977  -0.1020   0.9171   1.0000
  -0.100   0.3874   0.01686   0.00965  -0.1037   0.9148   1.0000
   0.000   0.3974   0.01693   0.00968  -0.1035   0.9082   1.0000
   0.100   0.4145   0.01690   0.00959  -0.1046   0.9044   1.0000
   0.200   0.4336   0.01683   0.00946  -0.1060   0.9018   1.0000
   0.300   0.4489   0.01681   0.00939  -0.1067   0.8978   1.0000
   0.400   0.4605   0.01684   0.00938  -0.1068   0.8918   1.0000
   0.500   0.4774   0.01676   0.00926  -0.1077   0.8886   1.0000
   0.600   0.4956   0.01665   0.00911  -0.1088   0.8862   1.0000
   0.700   0.5043   0.01673   0.00917  -0.1083   0.8791   1.0000
   0.800   0.5196   0.01666   0.00906  -0.1089   0.8752   1.0000
   0.900   0.5367   0.01653   0.00891  -0.1098   0.8725   1.0000
   1.000   0.5465   0.01659   0.00895  -0.1094   0.8661   1.0000
   1.100   0.5602   0.01654   0.00887  -0.1097   0.8616   1.0000
   1.200   0.5761   0.01641   0.00872  -0.1103   0.8586   1.0000
   1.300   0.5866   0.01645   0.00874  -0.1101   0.8526   1.0000
   1.400   0.5992   0.01641   0.00869  -0.1101   0.8476   1.0000
   1.500   0.6143   0.01628   0.00854  -0.1106   0.8444   1.0000
   1.600   0.6247   0.01632   0.00858  -0.1103   0.8384   1.0000
   1.700   0.6367   0.01630   0.00854  -0.1103   0.8333   1.0000
   1.800   0.6512   0.01618   0.00842  -0.1105   0.8299   1.0000
   1.900   0.6610   0.01624   0.00848  -0.1102   0.8235   1.0000
   2.000   0.6730   0.01621   0.00844  -0.1101   0.8185   1.0000
   2.100   0.6870   0.01610   0.00831  -0.1103   0.8152   1.0000
   2.200   0.6961   0.01621   0.00843  -0.1098   0.8083   1.0000
   2.300   0.7082   0.01618   0.00838  -0.1098   0.8035   1.0000
   2.400   0.7221   0.01607   0.00826  -0.1099   0.8002   1.0000
   2.500   0.7303   0.01623   0.00843  -0.1094   0.7928   1.0000
   2.600   0.7427   0.01618   0.00838  -0.1093   0.7883   1.0000
   2.700   0.7545   0.01618   0.00839  -0.1092   0.7838   1.0000
   2.800   0.7640   0.01629   0.00851  -0.1088   0.7772   1.0000
   2.900   0.7765   0.01624   0.00845  -0.1088   0.7731   1.0000
   3.000   0.7866   0.01634   0.00856  -0.1085   0.7673   1.0000
   3.100   0.7973   0.01640   0.00862  -0.1082   0.7617   1.0000
   3.200   0.8099   0.01636   0.00857  -0.1082   0.7578   1.0000
   3.300   0.8189   0.01652   0.00876  -0.1078   0.7513   1.0000
   3.400   0.8301   0.01656   0.00880  -0.1076   0.7463   1.0000
   3.500   0.8428   0.01653   0.00875  -0.1076   0.7426   1.0000
   3.700   0.8627   0.01676   0.00906  -0.1070   0.7309   1.0000
   3.800   0.8737   0.01683   0.00914  -0.1068   0.7261   1.0000
   3.900   0.8832   0.01698   0.00933  -0.1065   0.7200   1.0000
   4.000   0.8950   0.01700   0.00934  -0.1063   0.7156   1.0000
   4.100   0.9048   0.01714   0.00952  -0.1061   0.7100   1.0000
   4.200   0.9151   0.01725   0.00966  -0.1058   0.7045   1.0000
   4.300   0.9271   0.01727   0.00967  -0.1057   0.7003   1.0000
   4.400   0.9361   0.01746   0.00992  -0.1053   0.6941   1.0000
   4.500   0.9468   0.01755   0.01002  -0.1051   0.6889   1.0000
   4.600   0.9587   0.01758   0.01009  -0.1049   0.6847   1.0000
   4.700   0.9672   0.01779   0.01037  -0.1045   0.6779   1.0000
   4.800   0.9785   0.01784   0.01043  -0.1043   0.6730   1.0000
   4.900   0.9885   0.01797   0.01061  -0.1040   0.6674   1.0000
   5.000   0.9984   0.01809   0.01077  -0.1036   0.6612   1.0000
   5.100   1.0105   0.01810   0.01076  -0.1034   0.6565   1.0000
   5.200   1.0186   0.01823   0.01097  -0.1028   0.6481   1.0000
   5.300   1.0293   0.01815   0.01087  -0.1022   0.6398   1.0000
   5.400   1.0388   0.01806   0.01076  -0.1014   0.6292   1.0000
   5.500   1.0473   0.01799   0.01070  -0.1005   0.6172   1.0000
   5.600   1.0560   0.01790   0.01062  -0.0996   0.6047   1.0000
   5.700   1.0647   0.01783   0.01053  -0.0987   0.5921   1.0000
   5.800   1.0736   0.01779   0.01048  -0.0979   0.5804   1.0000
   5.900   1.0830   0.01778   0.01043  -0.0972   0.5696   1.0000
   6.000   1.0912   0.01781   0.01051  -0.0964   0.5576   1.0000
   6.100   1.0993   0.01785   0.01058  -0.0956   0.5453   1.0000
   6.200   1.1074   0.01789   0.01064  -0.0948   0.5325   1.0000
   6.300   1.1153   0.01793   0.01070  -0.0939   0.5189   1.0000
   6.400   1.1228   0.01798   0.01076  -0.0930   0.5034   1.0000
   6.500   1.1299   0.01804   0.01082  -0.0920   0.4865   1.0000
   6.600   1.1364   0.01813   0.01090  -0.0909   0.4662   1.0000
   6.700   1.1416   0.01826   0.01101  -0.0896   0.4393   1.0000
   6.800   1.1448   0.01848   0.01113  -0.0879   0.3974   1.0000
   6.900   1.1428   0.01913   0.01132  -0.0855   0.3091   1.0000
   7.000   1.1347   0.02076   0.01205  -0.0828   0.1965   1.0000
   7.100   1.1299   0.02240   0.01309  -0.0807   0.1410   1.0000
   7.200   1.1295   0.02356   0.01399  -0.0790   0.1199   1.0000
   7.300   1.1314   0.02446   0.01478  -0.0776   0.1073   1.0000
   7.400   1.1346   0.02521   0.01550  -0.0764   0.0982   1.0000
   7.500   1.1361   0.02610   0.01629  -0.0750   0.0927   1.0000
   7.600   1.1408   0.02674   0.01698  -0.0739   0.0877   1.0000
   7.700   1.1450   0.02743   0.01764  -0.0728   0.0834   1.0000
   7.800   1.1474   0.02839   0.01849  -0.0716   0.0799   1.0000
   7.900   1.1540   0.02897   0.01914  -0.0707   0.0762   1.0000
   8.000   1.1602   0.02960   0.01978  -0.0699   0.0726   1.0000
   8.100   1.1662   0.03035   0.02047  -0.0692   0.0696   1.0000
   8.200   1.1752   0.03173   0.02167  -0.0690   0.0670   1.0000
   8.300   1.1849   0.03239   0.02243  -0.0685   0.0654   1.0000
   8.400   1.1953   0.03318   0.02330  -0.0681   0.0636   1.0000
   8.500   1.2053   0.03398   0.02419  -0.0678   0.0616   1.0000
   8.600   1.2145   0.03476   0.02500  -0.0675   0.0594   1.0000
   8.700   1.2239   0.03568   0.02587  -0.0674   0.0572   1.0000
   8.800   1.2410   0.03799   0.02803  -0.0685   0.0549   1.0000
   8.900   1.2502   0.03881   0.02901  -0.0679   0.0543   1.0000
   9.000   1.2598   0.03982   0.03017  -0.0675   0.0537   1.0000
   9.100   1.2692   0.04094   0.03145  -0.0670   0.0532   1.0000
   9.200   1.2780   0.04215   0.03283  -0.0665   0.0528   1.0000
   9.300   1.2862   0.04343   0.03428  -0.0659   0.0525   1.0000
   9.400   1.2934   0.04470   0.03572  -0.0652   0.0522   1.0000
   9.500   1.2994   0.04592   0.03712  -0.0644   0.0517   1.0000
   9.600   1.3045   0.04711   0.03849  -0.0636   0.0511   1.0000
   9.700   1.3090   0.04829   0.03985  -0.0626   0.0505   1.0000
   9.800   1.3130   0.04951   0.04123  -0.0617   0.0498   1.0000
   9.900   1.3165   0.05076   0.04265  -0.0607   0.0493   1.0000
  10.000   1.3195   0.05215   0.04420  -0.0597   0.0490   1.0000
  10.300   1.3232   0.05708   0.04973  -0.0563   0.0500   1.0000
  10.400   1.3229   0.05880   0.05163  -0.0551   0.0504   1.0000
  10.500   1.3219   0.06055   0.05354  -0.0538   0.0509   1.0000
  10.600   1.3204   0.06231   0.05546  -0.0526   0.0514   1.0000
  10.700   1.3186   0.06412   0.05740  -0.0515   0.0519   1.0000
  10.800   1.3166   0.06597   0.05938  -0.0504   0.0524   1.0000
  10.900   1.3145   0.06791   0.06143  -0.0494   0.0529   1.0000
  11.000   1.3129   0.07004   0.06365  -0.0486   0.0535   1.0000
  11.100   1.3298   0.07360   0.06718  -0.0496   0.0555   1.0000
  11.200   1.3161   0.07330   0.06717  -0.0467   0.0565   1.0000
  11.300   1.2971   0.07410   0.06819  -0.0439   0.0571   1.0000
  11.400   1.2789   0.07546   0.06976  -0.0417   0.0580   1.0000
  11.500   1.2632   0.07722   0.07169  -0.0402   0.0588   1.0000
  11.600   1.2498   0.07913   0.07373  -0.0393   0.0595   1.0000
  11.700   1.2375   0.08118   0.07590  -0.0387   0.0602   1.0000
  11.800   1.2257   0.08323   0.07805  -0.0384   0.0607   1.0000
  11.900   1.2140   0.08539   0.08030  -0.0383   0.0612   1.0000
  12.000   1.2027   0.08763   0.08259  -0.0386   0.0616   1.0000
  12.100   1.1916   0.08996   0.08500  -0.0390   0.0620   1.0000
  12.200   1.1806   0.09242   0.08753  -0.0397   0.0624   1.0000
  12.300   1.1695   0.09501   0.09018  -0.0406   0.0627   1.0000
  12.400   1.1584   0.09773   0.09296  -0.0417   0.0630   1.0000
  12.500   1.1476   0.10059   0.09587  -0.0431   0.0633   1.0000
  12.600   1.1371   0.10358   0.09892  -0.0446   0.0637   1.0000
  12.700   1.1275   0.10665   0.10203  -0.0461   0.0642   1.0000
  12.800   1.0238   0.09398   0.08929  -0.0262   0.0569   1.0000
  12.900   1.0067   0.09661   0.09199  -0.0273   0.0570   1.0000
  13.000   0.9880   0.09950   0.09496  -0.0288   0.0572   1.0000
  13.100   0.9246   0.10819   0.10385  -0.0352   0.0617   1.0000
  13.200   0.9061   0.11167   0.10735  -0.0371   0.0631   1.0000
  13.300   0.8933   0.11462   0.11032  -0.0385   0.0641   1.0000
  13.400   0.8842   0.11720   0.11291  -0.0396   0.0649   1.0000
  13.500   0.8791   0.11929   0.11500  -0.0401   0.0655   1.0000
  13.600   0.8759   0.12118   0.11689  -0.0405   0.0661   1.0000
  13.700   0.8754   0.12282   0.11853  -0.0404   0.0666   1.0000
  13.800   0.8783   0.12417   0.11991  -0.0401   0.0674   1.0000
  13.900   1.0029   0.17455   0.16992  -0.0896   0.1309   1.0000
  14.000   0.9916   0.17704   0.17236  -0.0934   0.1280   1.0000
  14.100   0.9912   0.17876   0.17407  -0.0945   0.1252   1.0000
  14.200   0.9964   0.17986   0.17518  -0.0940   0.1224   1.0000
  14.300   1.0195   0.17984   0.17528  -0.0886   0.1194   1.0000
  14.400   1.0266   0.18236   0.17780  -0.0875   0.1186   1.0000
  14.500   1.0075   0.18510   0.18043  -0.0938   0.1175   1.0000
  14.600   0.9981   0.18733   0.18262  -0.0976   0.1150   1.0000
  14.700   0.9977   0.18902   0.18430  -0.0988   0.1124   1.0000
  14.800   1.0007   0.19044   0.18573  -0.0992   0.1102   1.0000
  14.900   1.0057   0.19179   0.18709  -0.0989   0.1086   1.0000
  15.000   1.0137   0.19307   0.18843  -0.0978   0.1072   1.0000
  15.100   1.0288   0.19464   0.19005  -0.0944   0.1060   1.0000
  15.200   1.0334   0.19740   0.19280  -0.0941   0.1053   1.0000
  15.300   1.0205   0.19937   0.19471  -0.0993   0.1047   1.0000
  15.400   1.0101   0.20104   0.19633  -0.1038   0.1024   1.0000
  15.500   1.0093   0.20261   0.19789  -0.1054   0.1003   1.0000
  15.600   1.0110   0.20414   0.19941  -0.1062   0.0985   1.0000
  15.700   1.0142   0.20560   0.20088  -0.1066   0.0969   1.0000
  15.800   1.0192   0.20704   0.20233  -0.1065   0.0955   1.0000
  15.900   1.0270   0.20857   0.20389  -0.1055   0.0942   1.0000
  16.000   1.0406   0.21063   0.20600  -0.1025   0.0930   1.0000
  16.100   1.0480   0.21379   0.20917  -0.1013   0.0923   1.0000
  16.200   1.0415   0.21523   0.21056  -0.1050   0.0920   1.0000
  16.300   1.0328   0.21630   0.21159  -0.1094   0.0911   1.0000
  16.400   1.0281   0.21741   0.21267  -0.1125   0.0894   1.0000
  16.500   1.0286   0.21890   0.21415  -0.1140   0.0875   1.0000
  16.600   1.0306   0.22039   0.21563  -0.1149   0.0859   1.0000
  16.700   1.0337   0.22182   0.21707  -0.1155   0.0844   1.0000
  16.800   1.0378   0.22320   0.21847  -0.1156   0.0830   1.0000
  16.900   1.0452   0.22474   0.22003  -0.1147   0.0815   1.0000
  17.000   1.0657   0.22926   0.22461  -0.1088   0.0795   1.0000
  17.100   1.0625   0.23052   0.22584  -0.1117   0.0793   1.0000
  17.200   1.0589   0.23154   0.22684  -0.1147   0.0790   1.0000
  17.300   1.0546   0.23224   0.22750  -0.1180   0.0785   1.0000
  17.400   1.0518   0.23311   0.22835  -0.1209   0.0772   1.0000
  17.500   1.0523   0.23444   0.22967  -0.1227   0.0754   1.0000
  17.600   1.0545   0.23586   0.23109  -0.1237   0.0738   1.0000
  17.700   1.0575   0.23723   0.23246  -0.1244   0.0722   1.0000
  17.800   1.0611   0.23857   0.23381  -0.1249   0.0708   1.0000
  17.900   1.0657   0.23999   0.23524  -0.1249   0.0696   1.0000
  18.000   1.0716   0.24169   0.23696  -0.1243   0.0687   1.0000
  18.100   1.0842   0.24518   0.24053  -0.1214   0.0676   1.0000
  18.200   1.0932   0.24982   0.24518  -0.1195   0.0670   1.0000
  18.300   1.0922   0.25079   0.24613  -0.1219   0.0669   1.0000
  18.400   1.0905   0.25146   0.24678  -0.1246   0.0667   1.0000
  18.500   1.0879   0.25170   0.24699  -0.1275   0.0664   1.0000
  18.600   1.0856   0.25194   0.24720  -0.1304   0.0658   1.0000
  18.700   1.0853   0.25276   0.24801  -0.1329   0.0648   1.0000
  18.800   1.0870   0.25406   0.24930  -0.1344   0.0636   1.0000
  18.900   1.0894   0.25544   0.25069  -0.1356   0.0625   1.0000
  19.000   1.0922   0.25685   0.25209  -0.1366   0.0614   1.0000
  19.100   1.0951   0.25824   0.25349  -0.1375   0.0604   1.0000
  19.200   1.0983   0.25961   0.25487  -0.1382   0.0595   1.0000
  19.300   1.1016   0.26099   0.25625  -0.1389   0.0586   1.0000
  19.400   1.1053   0.26238   0.25765  -0.1393   0.0578   1.0000
  19.500   1.1093   0.26386   0.25914  -0.1395   0.0571   1.0000
  19.600   1.1145   0.26570   0.26100  -0.1392   0.0563   1.0000
  19.700   1.1238   0.26949   0.26483  -0.1372   0.0555   1.0000
  19.900   1.1353   0.27712   0.27247  -0.1366   0.0548   1.0000
  20.000   1.1350   0.27738   0.27271  -0.1388   0.0547   1.0000
