  
       XFOIL         Version 6.99
  
 Calculated polar for: NACA 4415                                       
  
 1 1 Reynolds number fixed          Mach number fixed         
  
 xtrf =   1.000 (top)        1.000 (bottom)  
 Mach =   0.000     Re =     0.075 e 6     Ncrit =   9.000
  
   alpha    CL        CD       CDp       CM     Top_Xtr  Bot_Xtr
  ------ -------- --------- --------- -------- -------- --------
 -10.000  -0.3032   0.11954   0.11354  -0.0381   1.0000   0.1760
  -9.900  -0.3012   0.11859   0.11261  -0.0375   1.0000   0.1776
  -9.800  -0.3013   0.11776   0.11180  -0.0369   1.0000   0.1793
  -9.700  -0.3032   0.11702   0.11108  -0.0364   1.0000   0.1813
  -9.600  -0.3081   0.11643   0.11053  -0.0360   1.0000   0.1834
  -9.500  -0.3198   0.11630   0.11046  -0.0358   1.0000   0.1856
  -9.400  -0.3409   0.11683   0.11107  -0.0357   1.0000   0.1870
  -9.300  -0.3629   0.11736   0.11168  -0.0355   1.0000   0.1876
  -9.200  -0.3838   0.11771   0.11212  -0.0350   1.0000   0.1879
  -9.000  -0.3376   0.11167   0.10600  -0.0327   1.0000   0.1911
  -8.900  -0.3302   0.11059   0.10492  -0.0316   1.0000   0.1931
  -8.800  -0.3289   0.10982   0.10417  -0.0306   1.0000   0.1951
  -8.700  -0.3311   0.10918   0.10355  -0.0297   1.0000   0.1973
  -8.600  -0.3365   0.10866   0.10307  -0.0289   1.0000   0.1995
  -8.500  -0.3470   0.10837   0.10283  -0.0282   1.0000   0.2017
  -8.400  -0.3646   0.10848   0.10300  -0.0276   1.0000   0.2034
  -8.300  -0.3858   0.10875   0.10335  -0.0268   1.0000   0.2043
  -8.200  -0.4066   0.10894   0.10362  -0.0259   1.0000   0.2047
  -8.100  -0.4265   0.10903   0.10378  -0.0247   1.0000   0.2050
  -8.000  -0.4456   0.10904   0.10386  -0.0234   1.0000   0.2051
  -7.900  -0.4654   0.10891   0.10380  -0.0225   1.0000   0.2053
  -7.800  -0.3808   0.10305   0.09776  -0.0220   1.0000   0.2105
  -7.700  -0.3813   0.10234   0.09707  -0.0210   1.0000   0.2122
  -7.600  -0.3848   0.10173   0.09649  -0.0199   1.0000   0.2139
  -7.500  -0.3909   0.10119   0.09599  -0.0189   1.0000   0.2156
  -7.400  -0.4001   0.10077   0.09560  -0.0179   1.0000   0.2175
  -7.300  -0.4143   0.10054   0.09543  -0.0167   1.0000   0.2193
  -7.200  -0.4346   0.10060   0.09555  -0.0153   1.0000   0.2207
  -7.100  -0.4588   0.10074   0.09577  -0.0140   1.0000   0.2216
  -7.000  -0.4909   0.10051   0.09561  -0.0154   1.0000   0.2226
  -6.900  -0.5196   0.09941   0.09455  -0.0184   1.0000   0.2234
  -6.800  -0.5007   0.09758   0.09275  -0.0146   1.0000   0.2244
  -6.700  -0.4887   0.09642   0.09159  -0.0121   1.0000   0.2255
  -6.600  -0.4823   0.09549   0.09068  -0.0104   1.0000   0.2267
  -6.500  -0.4795   0.09469   0.08988  -0.0090   1.0000   0.2281
  -6.400  -0.4794   0.09397   0.08917  -0.0079   1.0000   0.2299
  -6.300  -0.4823   0.09323   0.08846  -0.0072   1.0000   0.2320
  -6.200  -0.4997   0.08948   0.08464  -0.0205   0.9932   0.2423
  -6.100  -0.4834   0.08820   0.08339  -0.0179   0.9918   0.2436
  -6.000  -0.4664   0.08732   0.08251  -0.0162   0.9898   0.2461
  -5.900  -0.4526   0.08619   0.08137  -0.0166   0.9869   0.2499
  -5.800  -0.4573   0.08280   0.07788  -0.0267   0.9801   0.2615
  -5.700  -0.4444   0.08157   0.07668  -0.0253   0.9776   0.2630
  -5.600  -0.4317   0.08032   0.07542  -0.0252   0.9747   0.2649
  -5.500  -0.4188   0.07887   0.07395  -0.0265   0.9717   0.2677
  -5.400  -0.4100   0.07718   0.07221  -0.0297   0.9676   0.2745
  -5.300  -0.4088   0.07491   0.06990  -0.0330   0.9619   0.2820
  -5.200  -0.3953   0.07375   0.06874  -0.0329   0.9592   0.2845
  -5.100  -0.3809   0.07225   0.06721  -0.0347   0.9565   0.2880
  -5.000  -0.3749   0.07050   0.06542  -0.0366   0.9517   0.2899
  -4.900  -0.3599   0.04034   0.03188  -0.0662   0.9532   0.1543
  -4.800  -0.3479   0.03937   0.03075  -0.0669   0.9491   0.1564
  -4.700  -0.3327   0.03897   0.03044  -0.0679   0.9454   0.1591
  -4.600  -0.3147   0.03863   0.03011  -0.0694   0.9425   0.1626
  -4.500  -0.2944   0.03800   0.02927  -0.0714   0.9402   0.1671
  -4.400  -0.2868   0.03741   0.02845  -0.0711   0.9349   0.1698
  -4.300  -0.2725   0.03673   0.02766  -0.0720   0.9311   0.1730
  -4.200  -0.2556   0.03643   0.02743  -0.0732   0.9279   0.1769
  -4.100  -0.2361   0.03608   0.02702  -0.0749   0.9254   0.1820
  -4.000  -0.2235   0.03566   0.02638  -0.0754   0.9213   0.1864
  -3.900  -0.2128   0.03520   0.02587  -0.0756   0.9167   0.1899
  -3.800  -0.1977   0.03495   0.02569  -0.0765   0.9131   0.1945
  -3.700  -0.1792   0.03464   0.02531  -0.0779   0.9103   0.2006
  -3.600  -0.1587   0.03415   0.02465  -0.0797   0.9081   0.2071
  -3.500  -0.1527   0.03401   0.02459  -0.0790   0.9026   0.2106
  -3.400  -0.1402   0.03383   0.02441  -0.0794   0.8981   0.2163
  -3.300  -0.1225   0.03351   0.02388  -0.0806   0.8949   0.2237
  -3.200  -0.1039   0.03315   0.02367  -0.0820   0.8924   0.2304
  -3.100  -0.0826   0.03288   0.02327  -0.0837   0.8904   0.2402
  -3.000  -0.0815   0.03281   0.02322  -0.0822   0.8834   0.2436
  -2.900  -0.0676   0.03259   0.02308  -0.0828   0.8795   0.2505
  -2.800  -0.0495   0.03235   0.02270  -0.0840   0.8767   0.2608
  -2.700  -0.0304   0.03201   0.02250  -0.0854   0.8745   0.2700
  -2.600  -0.0197   0.03195   0.02231  -0.0854   0.8701   0.2790
  -2.500  -0.0124   0.03181   0.02232  -0.0850   0.8646   0.2851
  -2.400   0.0032   0.03163   0.02208  -0.0857   0.8611   0.2968
  -2.300   0.0212   0.03128   0.02184  -0.0869   0.8586   0.3080
  -2.200   0.0410   0.03094   0.02152  -0.0883   0.8566   0.3221
  -2.100   0.0461   0.03099   0.02160  -0.0874   0.8509   0.3307
  -2.000   0.0562   0.03086   0.02152  -0.0873   0.8462   0.3416
  -1.900   0.0723   0.03062   0.02128  -0.0881   0.8431   0.3573
  -1.800   0.0904   0.03028   0.02102  -0.0892   0.8408   0.3749
  -1.700   0.1100   0.02989   0.02073  -0.0905   0.8390   0.3949
  -1.500   0.1228   0.02986   0.02091  -0.0891   0.8284   0.4220
  -1.400   0.1381   0.02957   0.02074  -0.0896   0.8255   0.4455
  -1.300   0.1557   0.02920   0.02053  -0.0905   0.8233   0.4750
  -1.200   0.1748   0.02877   0.02030  -0.0915   0.8217   0.5126
  -1.100   0.1940   0.02827   0.02007  -0.0924   0.8204   0.5617
  -0.900   0.1969   0.02837   0.02062  -0.0889   0.8085   0.6432
  -0.800   0.2073   0.02790   0.02056  -0.0875   0.8064   0.7328
  -0.700   0.2249   0.02745   0.02049  -0.0866   0.8051   0.8716
  -0.600   0.2909   0.02706   0.01995  -0.0962   0.8050   1.0000
  -0.500   0.3125   0.02682   0.01956  -0.0979   0.8035   1.0000
  -0.300   0.3130   0.02750   0.02008  -0.0949   0.7911   1.0000
  -0.200   0.3311   0.02735   0.01982  -0.0960   0.7888   1.0000
  -0.100   0.3510   0.02714   0.01951  -0.0973   0.7870   1.0000
   0.000   0.3717   0.02691   0.01918  -0.0986   0.7855   1.0000
   0.200   0.3716   0.02776   0.01993  -0.0955   0.7733   1.0000
   0.300   0.3888   0.02762   0.01971  -0.0964   0.7711   1.0000
   0.400   0.4080   0.02740   0.01941  -0.0975   0.7693   1.0000
   0.500   0.4279   0.02716   0.01910  -0.0986   0.7679   1.0000
   0.700   0.4277   0.02815   0.02001  -0.0956   0.7560   1.0000
   0.800   0.4439   0.02803   0.01983  -0.0962   0.7536   1.0000
   0.900   0.4622   0.02782   0.01956  -0.0971   0.7519   1.0000
   1.000   0.4814   0.02758   0.01925  -0.0981   0.7504   1.0000
   1.100   0.5010   0.02732   0.01893  -0.0992   0.7490   1.0000
   1.300   0.4964   0.02860   0.02017  -0.0957   0.7365   1.0000
   1.400   0.5140   0.02840   0.01992  -0.0964   0.7346   1.0000
   1.500   0.5328   0.02815   0.01962  -0.0973   0.7330   1.0000
   1.600   0.5517   0.02790   0.01931  -0.0982   0.7316   1.0000
   1.800   0.5468   0.02933   0.02072  -0.0948   0.7196   1.0000
   1.900   0.5631   0.02917   0.02052  -0.0954   0.7175   1.0000
   2.000   0.5814   0.02893   0.02023  -0.0962   0.7159   1.0000
   2.100   0.6002   0.02866   0.01992  -0.0970   0.7144   1.0000
   2.200   0.6196   0.02837   0.01959  -0.0979   0.7130   1.0000
   2.300   0.5959   0.03018   0.02143  -0.0938   0.7031   1.0000
   2.400   0.6103   0.03011   0.02133  -0.0941   0.7006   1.0000
   2.500   0.6277   0.02989   0.02108  -0.0947   0.6988   1.0000
   2.600   0.6464   0.02961   0.02076  -0.0956   0.6973   1.0000
   2.700   0.6654   0.02932   0.02043  -0.0964   0.6958   1.0000
   3.100   0.6904   0.03075   0.02182  -0.0939   0.6803   1.0000
   3.200   0.7095   0.03044   0.02147  -0.0947   0.6788   1.0000
   3.300   0.7290   0.03012   0.02113  -0.0956   0.6774   1.0000
   3.600   0.7326   0.03205   0.02308  -0.0920   0.6633   1.0000
   3.700   0.7520   0.03170   0.02270  -0.0928   0.6618   1.0000
   3.800   0.7715   0.03136   0.02233  -0.0937   0.6603   1.0000
   4.000   0.7564   0.03375   0.02477  -0.0896   0.6485   1.0000
   4.100   0.7726   0.03355   0.02455  -0.0900   0.6463   1.0000
   4.200   0.7918   0.03318   0.02417  -0.0907   0.6447   1.0000
   4.300   0.8125   0.03275   0.02372  -0.0916   0.6433   1.0000
   4.400   0.8328   0.03235   0.02329  -0.0925   0.6419   1.0000
   4.600   0.8111   0.03519   0.02620  -0.0878   0.6294   1.0000
   4.700   0.8298   0.03483   0.02583  -0.0885   0.6276   1.0000
   4.800   0.8509   0.03434   0.02532  -0.0894   0.6261   1.0000
   4.900   0.8727   0.03382   0.02479  -0.0903   0.6247   1.0000
   5.000   0.8945   0.03334   0.02429  -0.0914   0.6233   1.0000
   5.200   0.8664   0.03659   0.02763  -0.0861   0.6104   1.0000
   5.300   0.8877   0.03605   0.02708  -0.0869   0.6088   1.0000
   5.400   0.9111   0.03541   0.02642  -0.0880   0.6075   1.0000
   5.500   0.9339   0.03483   0.02582  -0.0891   0.6061   1.0000
   5.700   0.9018   0.03844   0.02953  -0.0836   0.5931   1.0000
   5.800   0.9235   0.03785   0.02894  -0.0844   0.5915   1.0000
   5.900   0.9479   0.03711   0.02819  -0.0855   0.5901   1.0000
   6.000   0.9728   0.03636   0.02743  -0.0867   0.5887   1.0000
   6.300   0.9589   0.03965   0.03081  -0.0818   0.5740   1.0000
   6.400   0.9848   0.03877   0.02993  -0.0830   0.5726   1.0000
   6.500   1.0121   0.03783   0.02899  -0.0844   0.5712   1.0000
   6.600   1.0391   0.03698   0.02812  -0.0858   0.5698   1.0000
   6.800   0.9942   0.04139   0.03265  -0.0791   0.5563   1.0000
   6.900   1.0226   0.04031   0.03157  -0.0805   0.5550   1.0000
   7.000   1.0529   0.03916   0.03041  -0.0821   0.5536   1.0000
   7.100   1.0824   0.03812   0.02936  -0.0837   0.5521   1.0000
   7.300   1.0289   0.04305   0.03440  -0.0763   0.5386   1.0000
   7.400   1.0631   0.04159   0.03296  -0.0781   0.5373   1.0000
   7.500   1.0967   0.04019   0.03155  -0.0800   0.5359   1.0000
   7.600   1.1298   0.03892   0.03025  -0.0820   0.5343   1.0000
   7.700   1.0292   0.04627   0.03772  -0.0718   0.5218   1.0000
   7.800   1.0675   0.04432   0.03579  -0.0736   0.5208   1.0000
   7.900   1.1096   0.04234   0.03381  -0.0762   0.5195   1.0000
   8.000   1.1470   0.04068   0.03215  -0.0784   0.5179   1.0000
   8.100   1.0299   0.04979   0.04133  -0.0680   0.5047   1.0000
   8.200   1.0691   0.04739   0.03895  -0.0693   0.5040   1.0000
   8.300   1.1174   0.04467   0.03627  -0.0718   0.5031   1.0000
   8.400   1.1665   0.04224   0.03383  -0.0750   0.5015   1.0000
   8.500   1.2095   0.04026   0.03181  -0.0779   0.4993   1.0000
   8.600   1.0729   0.05053   0.04220  -0.0656   0.4870   1.0000
   8.700   1.1269   0.04692   0.03863  -0.0678   0.4866   1.0000
   8.800   1.1906   0.04337   0.03508  -0.0720   0.4851   1.0000
   8.900   1.2393   0.04097   0.03263  -0.0753   0.4825   1.0000
   9.000   1.2449   0.04129   0.03298  -0.0745   0.4784   1.0000
   9.100   1.1562   0.04767   0.03948  -0.0653   0.4710   1.0000
   9.200   1.2242   0.04369   0.03551  -0.0698   0.4686   1.0000
   9.300   1.2786   0.04094   0.03269  -0.0736   0.4652   1.0000
   9.400   1.2934   0.04068   0.03244  -0.0737   0.4610   1.0000
   9.500   1.2505   0.04376   0.03565  -0.0680   0.4560   1.0000
   9.600   1.2756   0.04276   0.03466  -0.0691   0.4514   1.0000
   9.700   1.3312   0.04000   0.03179  -0.0732   0.4469   1.0000
   9.800   1.3253   0.04087   0.03272  -0.0711   0.4424   1.0000
   9.900   1.3065   0.04244   0.03439  -0.0678   0.4377   1.0000
  10.000   1.3319   0.04136   0.03329  -0.0688   0.4326   1.0000
  10.100   1.3771   0.03933   0.03114  -0.0721   0.4272   1.0000
  10.200   1.3518   0.04115   0.03312  -0.0679   0.4229   1.0000
  10.300   1.3502   0.04162   0.03364  -0.0662   0.4180   1.0000
  10.400   1.4009   0.03922   0.03107  -0.0700   0.4116   1.0000
  10.500   1.3885   0.04029   0.03225  -0.0671   0.4073   1.0000
  10.600   1.3763   0.04128   0.03333  -0.0642   0.4028   1.0000
  10.700   1.4081   0.03989   0.03185  -0.0661   0.3963   1.0000
  10.800   1.4155   0.03987   0.03183  -0.0653   0.3911   1.0000
  10.900   1.4009   0.04091   0.03298  -0.0621   0.3869   1.0000
  11.000   1.4180   0.04027   0.03230  -0.0623   0.3807   1.0000
  11.100   1.4349   0.03973   0.03170  -0.0626   0.3747   1.0000
  11.200   1.4204   0.04075   0.03283  -0.0594   0.3706   1.0000
  11.300   1.4300   0.04048   0.03254  -0.0588   0.3647   1.0000
  11.400   1.4474   0.03987   0.03185  -0.0591   0.3582   1.0000
  11.500   1.4344   0.04088   0.03297  -0.0562   0.3540   1.0000
  11.600   1.4424   0.04069   0.03275  -0.0555   0.3478   1.0000
  11.700   1.4544   0.04037   0.03236  -0.0552   0.3415   1.0000
  11.800   1.4433   0.04134   0.03343  -0.0527   0.3369   1.0000
  11.900   1.4555   0.04092   0.03294  -0.0524   0.3301   1.0000
  12.000   1.4568   0.04123   0.03325  -0.0511   0.3244   1.0000
  12.100   1.4483   0.04212   0.03422  -0.0491   0.3196   1.0000
  12.200   1.4710   0.04115   0.03302  -0.0497   0.3112   1.0000
  12.300   1.4561   0.04246   0.03448  -0.0471   0.3072   1.0000
  12.400   1.4514   0.04318   0.03525  -0.0455   0.3017   1.0000
  12.500   1.4657   0.04273   0.03463  -0.0454   0.2941   1.0000
  12.600   1.4534   0.04401   0.03604  -0.0433   0.2897   1.0000
  12.700   1.4546   0.04441   0.03641  -0.0423   0.2834   1.0000
  12.800   1.4595   0.04465   0.03656  -0.0415   0.2769   1.0000
  12.900   1.4504   0.04584   0.03785  -0.0399   0.2721   1.0000
  13.000   1.4608   0.04567   0.03751  -0.0395   0.2646   1.0000
  13.100   1.4533   0.04685   0.03876  -0.0381   0.2598   1.0000
  13.200   1.4476   0.04790   0.03986  -0.0369   0.2546   1.0000
  13.300   1.4593   0.04772   0.03948  -0.0365   0.2471   1.0000
  13.400   1.4479   0.04926   0.04117  -0.0351   0.2431   1.0000
  13.500   1.4452   0.05018   0.04209  -0.0342   0.2377   1.0000
  13.600   1.4536   0.05030   0.04204  -0.0337   0.2310   1.0000
  13.700   1.4436   0.05186   0.04373  -0.0326   0.2271   1.0000
  13.800   1.4424   0.05272   0.04457  -0.0318   0.2218   1.0000
  13.900   1.4500   0.05297   0.04466  -0.0313   0.2156   1.0000
  14.000   1.4406   0.05458   0.04640  -0.0304   0.2121   1.0000
  14.100   1.4388   0.05558   0.04741  -0.0297   0.2073   1.0000
  14.200   1.4498   0.05560   0.04721  -0.0293   0.2011   1.0000
  14.300   1.4399   0.05733   0.04910  -0.0285   0.1980   1.0000
  14.400   1.4354   0.05864   0.05046  -0.0278   0.1942   1.0000
  14.500   1.4538   0.05807   0.04957  -0.0276   0.1872   1.0000
  14.600   1.4429   0.05993   0.05161  -0.0268   0.1849   1.0000
  14.700   1.4354   0.06158   0.05337  -0.0263   0.1820   1.0000
  14.800   1.4342   0.06266   0.05447  -0.0258   0.1783   1.0000
  14.900   1.4521   0.06219   0.05373  -0.0255   0.1723   1.0000
  15.000   1.4419   0.06408   0.05579  -0.0249   0.1703   1.0000
  15.100   1.4344   0.06581   0.05763  -0.0245   0.1678   1.0000
  15.200   1.4317   0.06710   0.05897  -0.0241   0.1649   1.0000
  15.300   1.4577   0.06597   0.05749  -0.0237   0.1586   1.0000
  15.400   1.4471   0.06795   0.05963  -0.0233   0.1571   1.0000
  15.500   1.4381   0.06987   0.06170  -0.0230   0.1554   1.0000
  15.600   1.4314   0.07161   0.06355  -0.0228   0.1534   1.0000
  15.700   1.4288   0.07297   0.06495  -0.0225   0.1509   1.0000
  15.800   1.4602   0.07133   0.06294  -0.0220   0.1449   1.0000
  15.900   1.4494   0.07341   0.06518  -0.0217   0.1438   1.0000
  16.000   1.4394   0.07551   0.06743  -0.0216   0.1426   1.0000
  16.100   1.4306   0.07756   0.06961  -0.0215   0.1412   1.0000
  16.200   1.4236   0.07948   0.07164  -0.0215   0.1397   1.0000
  16.300   1.4195   0.08110   0.07332  -0.0214   0.1380   1.0000
  16.400   1.4250   0.08167   0.07386  -0.0211   0.1354   1.0000
  16.500   1.4490   0.08068   0.07265  -0.0204   0.1313   1.0000
  16.600   1.4371   0.08306   0.07519  -0.0205   0.1306   1.0000
  16.700   1.4254   0.08553   0.07780  -0.0207   0.1299   1.0000
  16.800   1.4138   0.08809   0.08049  -0.0211   0.1291   1.0000
  16.900   1.4021   0.09074   0.08327  -0.0216   0.1284   1.0000
  17.000   1.3902   0.09349   0.08614  -0.0222   0.1277   1.0000
  17.100   1.3778   0.09638   0.08915  -0.0229   0.1271   1.0000
  17.200   1.3644   0.09951   0.09239  -0.0238   0.1265   1.0000
  17.300   1.3474   0.10326   0.09627  -0.0251   0.1263   1.0000
  17.400   1.3208   0.10865   0.10183  -0.0274   0.1270   1.0000
  17.500   1.2820   0.11648   0.10984  -0.0312   0.1285   1.0000
  17.600   1.2362   0.12632   0.11984  -0.0364   0.1303   1.0000
  17.700   1.1747   0.14081   0.13443  -0.0444   0.1323   1.0000
  17.900   1.0041   0.19587   0.18929  -0.0764   0.1449   1.0000
  18.000   1.0052   0.19827   0.19170  -0.0774   0.1450   1.0000
